Version 4
SHEET 1 924 780
WIRE -1312 -352 -1648 -352
WIRE -976 -352 -1312 -352
WIRE -656 -352 -976 -352
WIRE -1312 -304 -1312 -352
WIRE -1184 -304 -1312 -304
WIRE -976 -304 -976 -352
WIRE -848 -304 -976 -304
WIRE -656 -304 -656 -352
WIRE -528 -304 -656 -304
WIRE -1312 -272 -1312 -304
WIRE -976 -272 -976 -304
WIRE -656 -272 -656 -304
WIRE -2144 -256 -2160 -256
WIRE -1984 -256 -2144 -256
WIRE -1184 -256 -1184 -304
WIRE -848 -256 -848 -304
WIRE -528 -256 -528 -304
WIRE -2272 -240 -2528 -240
WIRE -2624 -224 -2640 -224
WIRE -2144 -192 -2144 -256
WIRE -2112 -192 -2144 -192
WIRE -1984 -192 -2048 -192
WIRE -1312 -160 -1312 -192
WIRE -1184 -160 -1184 -192
WIRE -1184 -160 -1312 -160
WIRE -976 -160 -976 -192
WIRE -848 -160 -848 -192
WIRE -848 -160 -976 -160
WIRE -656 -160 -656 -192
WIRE -528 -160 -528 -192
WIRE -528 -160 -656 -160
WIRE -1312 -112 -1312 -160
WIRE -272 -112 -1312 -112
WIRE -144 -112 -192 -112
WIRE 112 -112 -144 -112
WIRE 272 -112 192 -112
WIRE 480 -112 352 -112
WIRE 608 -112 560 -112
WIRE -2144 -48 -2160 -48
WIRE -1984 -48 -2144 -48
WIRE -1648 -48 -1648 -352
WIRE -2528 -32 -2528 -240
WIRE -2272 -32 -2528 -32
WIRE -976 -32 -976 -160
WIRE -272 -32 -976 -32
WIRE -48 -32 -192 -32
WIRE 112 -32 -48 -32
WIRE 272 -32 192 -32
WIRE 480 -32 352 -32
WIRE 608 -32 608 -112
WIRE 608 -32 560 -32
WIRE -2144 0 -2144 -48
WIRE -2112 0 -2144 0
WIRE -1984 0 -2048 0
WIRE -656 48 -656 -160
WIRE -272 48 -656 48
WIRE 48 48 -192 48
WIRE 112 48 48 48
WIRE 272 48 192 48
WIRE 480 48 352 48
WIRE 608 48 608 -32
WIRE 608 48 560 48
WIRE -2528 96 -2528 -32
WIRE -2528 96 -2624 96
WIRE -144 96 -144 -112
WIRE -48 96 -48 -32
WIRE 48 96 48 48
WIRE -1312 112 -1312 -112
WIRE -1184 112 -1312 112
WIRE -976 112 -976 -32
WIRE -848 112 -976 112
WIRE -656 112 -656 48
WIRE -528 112 -656 112
WIRE -1312 144 -1312 112
WIRE -976 144 -976 112
WIRE -656 144 -656 112
WIRE -2144 160 -2160 160
WIRE -1984 160 -2144 160
WIRE -1184 160 -1184 112
WIRE -848 160 -848 112
WIRE -528 160 -528 112
WIRE -2528 176 -2528 96
WIRE -2272 176 -2528 176
WIRE -2144 208 -2144 160
WIRE -2112 208 -2144 208
WIRE -1984 208 -2048 208
WIRE -144 240 -144 160
WIRE -48 240 -48 160
WIRE -48 240 -144 240
WIRE 48 240 48 160
WIRE 48 240 -48 240
WIRE -1312 256 -1312 224
WIRE -1184 256 -1184 224
WIRE -1184 256 -1312 256
WIRE -976 256 -976 224
WIRE -848 256 -848 224
WIRE -848 256 -976 256
WIRE -656 256 -656 224
WIRE -528 256 -528 224
WIRE -528 256 -656 256
WIRE -1648 304 -1648 32
WIRE -1312 304 -1312 256
WIRE -1312 304 -1648 304
WIRE -976 304 -976 256
WIRE -976 304 -1312 304
WIRE -656 304 -656 256
WIRE -656 304 -976 304
WIRE -48 304 -48 240
WIRE -1648 368 -1648 304
FLAG -1360 -256 0
FLAG -1360 160 0
FLAG -1024 -256 0
FLAG -704 -256 0
FLAG -704 160 0
FLAG -1024 160 0
FLAG -2624 -224 a
IOPIN -2624 -224 Out
FLAG -2624 -192 b
IOPIN -2624 -192 Out
FLAG -2624 -160 c
IOPIN -2624 -160 Out
FLAG -2272 -272 a
IOPIN -2272 -272 In
FLAG -2272 -64 b
IOPIN -2272 -64 In
FLAG -2272 144 c
IOPIN -2272 144 In
FLAG -1984 -256 Vs1
IOPIN -1984 -256 Out
FLAG -1984 -48 Vs3
IOPIN -1984 -48 Out
FLAG -1984 160 Vs5
IOPIN -1984 160 Out
FLAG -1984 -192 Vs2
IOPIN -1984 -192 Out
FLAG -1984 0 Vs4
IOPIN -1984 0 Out
FLAG -1984 208 Vs6
IOPIN -1984 208 Out
FLAG -1360 -208 Vs1
IOPIN -1360 -208 In
FLAG -1024 -208 Vs3
IOPIN -1024 -208 In
FLAG -1024 208 Vs4
IOPIN -1024 208 In
FLAG -704 -208 Vs5
IOPIN -704 -208 In
FLAG -704 208 Vs6
IOPIN -704 208 In
FLAG -1360 208 Vs2
IOPIN -1360 208 In
FLAG -1648 368 0
FLAG -2144 608 angle
IOPIN -2144 608 Out
FLAG -1616 560 a
IOPIN -1616 560 In
FLAG -1616 592 b
IOPIN -1616 592 In
FLAG -1616 624 c
IOPIN -1616 624 In
FLAG -2272 576 a
IOPIN -2272 576 In
FLAG -2272 608 b
IOPIN -2272 608 In
FLAG -2272 640 c
IOPIN -2272 640 In
FLAG -1552 656 angle
IOPIN -1552 656 In
FLAG -1488 560 vd
IOPIN -1488 560 Out
FLAG -1488 592 vq
IOPIN -1488 592 Out
FLAG -1488 624 v0
IOPIN -1488 624 Out
FLAG -48 304 0
SYMBOL voltage -1648 -64 R0
WINDOW 123 0 0 Left 0
WINDOW 39 0 0 Left 0
SYMATTR InstName V1
SYMATTR Value {Vdc}
SYMBOL sw -1312 -288 R0
SYMATTR InstName S1
SYMATTR Value S1
SYMBOL sw -1312 128 R0
SYMATTR InstName S2
SYMATTR Value S2
SYMBOL sw -976 -288 R0
SYMATTR InstName S3
SYMATTR Value S3
SYMBOL sw -976 128 R0
SYMATTR InstName S4
SYMATTR Value S4
SYMBOL sw -656 -288 R0
SYMATTR InstName S5
SYMATTR Value S5
SYMBOL sw -656 128 R0
SYMATTR InstName S6
SYMATTR Value S6
SYMBOL diode -1168 -192 R180
WINDOW 0 24 64 Left 2
WINDOW 3 24 0 Left 2
SYMATTR InstName D1
SYMBOL diode -1168 224 R180
WINDOW 0 24 64 Left 2
WINDOW 3 24 0 Left 2
SYMATTR InstName D2
SYMBOL diode -832 -192 R180
WINDOW 0 24 64 Left 2
WINDOW 3 24 0 Left 2
SYMATTR InstName D3
SYMBOL diode -832 224 R180
WINDOW 0 24 64 Left 2
WINDOW 3 24 0 Left 2
SYMATTR InstName D4
SYMBOL diode -512 -192 R180
WINDOW 0 24 64 Left 2
WINDOW 3 24 0 Left 2
SYMATTR InstName D5
SYMBOL diode -512 224 R180
WINDOW 0 24 64 Left 2
WINDOW 3 24 0 Left 2
SYMATTR InstName D6
SYMBOL ac3phase -2688 -192 R0
SYMATTR InstName U1
SYMATTR Value V={V}
SYMBOL carriertriangle -2672 96 R0
SYMATTR Value Vc={Vcarrier}
SYMATTR Value2 Tc={T}
SYMATTR InstName U2
SYMBOL compare -2224 -256 R0
SYMATTR InstName U3
SYMATTR Value Von=1
SYMBOL compare -2224 -48 R0
SYMATTR InstName U4
SYMATTR Value Von=1
SYMBOL compare -2224 160 R0
SYMATTR InstName U5
SYMATTR Value Von=1
SYMBOL Digital\\inv -2112 -256 R0
SYMATTR InstName A1
SYMBOL Digital\\inv -2112 -64 R0
SYMATTR InstName A2
SYMBOL Digital\\inv -2112 144 R0
SYMATTR InstName A3
SYMBOL res 208 -128 R90
WINDOW 0 0 56 VBottom 2
WINDOW 3 32 56 VTop 2
SYMATTR InstName R1
SYMATTR Value 1
SYMBOL res 208 -48 R90
WINDOW 0 0 56 VBottom 2
WINDOW 3 32 56 VTop 2
SYMATTR InstName R2
SYMATTR Value 1
SYMBOL res 208 32 R90
WINDOW 0 0 56 VBottom 2
WINDOW 3 32 56 VTop 2
SYMATTR InstName R3
SYMATTR Value 1
SYMBOL voltage 576 -112 R90
WINDOW 0 -32 56 VBottom 2
WINDOW 3 -157 -153 VTop 2
WINDOW 123 0 0 Left 0
WINDOW 39 0 0 Left 0
SYMATTR InstName V2
SYMATTR Value SINE(0 {V} 50)
SYMBOL voltage 576 -32 R90
WINDOW 0 -32 56 VBottom 2
WINDOW 3 -200 -204 VTop 2
WINDOW 123 0 0 Left 0
WINDOW 39 0 0 Left 0
SYMATTR InstName V3
SYMATTR Value SINE(0 {V} 50 0 0 -120)
SYMBOL voltage 576 48 R90
WINDOW 0 -32 56 VBottom 2
WINDOW 3 -243 -200 VTop 2
WINDOW 123 0 0 Left 0
WINDOW 39 0 0 Left 0
SYMATTR InstName V4
SYMATTR Value SINE(0 {V} 50 0 0 120)
SYMBOL ind 256 -96 R270
WINDOW 0 32 56 VTop 2
WINDOW 3 5 56 VBottom 2
SYMATTR InstName L1
SYMATTR Value 10m
SYMBOL ind 256 -16 R270
WINDOW 0 32 56 VTop 2
WINDOW 3 5 56 VBottom 2
SYMATTR InstName L2
SYMATTR Value 10m
SYMBOL ind 256 64 R270
WINDOW 0 32 56 VTop 2
WINDOW 3 5 56 VBottom 2
SYMATTR InstName L3
SYMATTR Value 10m
SYMBOL PLL -2208 608 R0
SYMATTR InstName U6
SYMBOL park -1552 592 R0
SYMATTR InstName U7
SYMBOL ind -288 -96 R270
WINDOW 0 32 56 VTop 2
WINDOW 3 161 58 VBottom 2
SYMATTR InstName L4
SYMATTR Value {Lf}
SYMBOL ind -288 -16 R270
WINDOW 0 32 56 VTop 2
WINDOW 3 240 116 VBottom 2
SYMATTR InstName L5
SYMATTR Value {Lf}
SYMBOL ind -288 64 R270
WINDOW 0 32 56 VTop 2
WINDOW 3 321 172 VBottom 2
SYMATTR InstName L6
SYMATTR Value {Lf}
SYMBOL cap -160 96 R0
SYMATTR InstName C1
SYMATTR Value {Cf}
SYMBOL cap -64 96 R0
SYMATTR InstName C2
SYMATTR Value {Cf}
SYMBOL cap 32 96 R0
SYMATTR InstName C3
SYMATTR Value {Cf}
TEXT -2048 -456 Left 2 !.tran 0 100m 0
TEXT -2048 -424 Left 2 !.include param_inverter.txt
